20

C                     2.39774000          -1.85527000           0.35163000         
C                     1.22418000          -0.96498000           0.13676000         
C                     1.27986000           0.23310000          -0.46885000         
C                     0.19637000           1.20861000          -0.49440000         
C                     0.38703000           2.39509000          -1.10263000         
C                    -1.09191000           0.93192000           0.26275000         
C                    -1.96469000          -0.07259000          -0.44242000         
C                    -2.46220000          -1.17883000           0.12778000         
H                     3.23676000          -1.61351000          -0.30535000         
H                     2.11796000          -2.90100000           0.19419000         
H                     0.30351000          -1.32577000           0.57984000         
H                     2.22332000           0.54495000          -0.91447000         
H                     1.30847000           2.63966000          -1.62112000         
H                    -0.37616000           3.16716000          -1.08330000         
H                    -0.85239000           0.60891000           1.28496000         
H                    -1.67029000           1.85699000           0.38043000         
H                    -2.17598000           0.12110000          -1.49148000         
H                    -3.05831000          -1.87869000          -0.44904000         
H                    -2.27027000          -1.42186000           1.16861000         
H                     2.72151000          -1.74371000           1.39181000         
