20

C                    -2.62787000           1.24766000          -0.30570000         
C                    -1.30049000           1.25730000          -0.12978000         
C                    -0.40542000           0.08522000          -0.16572000         
C                    -0.73182000          -1.12317000          -0.94627000         
C                    -1.39573000          -1.14638000          -2.11021000         
C                     0.75364000           0.12089000           0.54266000         
C                     1.24434000           1.22029000           1.37615000         
C                     2.42921000           0.85321000           1.89008000         
C                     2.75371000          -0.47948000           1.43178000         
C                     1.77414000          -0.92564000           0.63102000         
H                    -3.18573000           0.33903000          -0.50564000         
H                    -3.19363000           2.17276000          -0.25472000         
H                    -0.84063000           2.22271000           0.06579000         
H                    -0.39963000          -2.07567000          -0.53900000         
H                    -1.59789000          -2.08616000          -2.61414000         
H                    -1.75942000          -0.24213000          -2.58808000         
H                     3.05357000           1.44471000           2.54190000         
H                     3.65186000          -1.01141000           1.70639000         
H                     1.75574000          -1.88733000           0.14516000         
H                     0.75724000           2.16418000           1.55543000         
