18

C                     1.81987000           2.86779000          -0.32455000         
C                     1.00612000           2.02109000          -0.08403000         
C                     0.07210000           0.98786000           0.17837000         
C                     0.24410000          -0.39475000          -0.21180000         
C                     1.28050000          -0.93463000          -0.86936000         
C                     1.27084000          -2.38084000          -1.17332000         
O                     2.18648000          -2.92803000          -1.77248000         
C                    -0.97791000          -1.14253000           0.26342000         
C                    -1.86099000          -0.10692000           0.94984000         
C                    -1.08654000           1.16277000           0.82223000         
H                     2.56049000           3.60104000          -0.55189000         
H                     2.14677000          -0.37298000          -1.20087000         
H                    -0.69867000          -1.93273000           0.96998000         
H                    -1.50857000          -1.59508000          -0.58236000         
H                    -2.83283000          -0.03577000           0.45149000         
H                    -2.02531000          -0.37309000           1.99867000         
H                    -1.44499000           2.10422000           1.21533000         
H                     0.39164000          -2.94923000          -0.83067000         
