19

C                     2.09632000          -0.12137000           0.24018000         
C                     0.90936000          -0.00029000          -0.66374000         
N                     1.02798000           0.08207000          -1.95765000         
C                    -0.25414000           0.17788000          -2.42008000         
C                    -1.17935000           0.15864000          -1.45861000         
C                    -0.51477000           0.03375000          -0.11707000         
C                    -0.88646000          -1.26684000           0.58406000         
C                    -0.75990000           1.25775000           0.75644000         
H                     3.02006000          -0.12798000          -0.34445000         
H                     2.03150000          -1.05094000           0.81072000         
H                     2.12063000           0.72441000           0.93147000         
H                    -2.24480000           0.22314000          -1.62129000         
H                    -0.66936000          -2.14127000          -0.04108000         
H                    -0.32058000          -1.38865000           1.51435000         
H                    -1.95280000          -1.29092000           0.83519000         
H                    -0.45267000           2.18288000           0.25413000         
H                    -1.82021000           1.35354000           1.01586000         
H                    -0.19094000           1.19540000           1.69074000         
H                    -0.44787000           0.26011000          -3.48276000         
