27

C                    -2.29410000           1.98628000          -2.19049000         
C                    -1.24977000           1.63497000          -1.70781000         
C                     0.02005000           1.39200000          -1.00113000         
N                     0.21228000           0.03130000          -0.47474000         
C                     1.61921000          -0.18318000          -0.05348000         
C                     2.00219000           0.38290000           1.32142000         
C                     1.98322000          -1.67260000          -0.13373000         
C                    -0.79509000          -0.45178000           0.49426000         
C                    -1.46900000           0.60714000           1.37781000         
C                    -1.83808000          -1.28096000          -0.26394000         
H                    -3.22261000           2.37857000          -2.53516000         
H                     0.81954000           1.61855000          -1.71792000         
H                     2.27417000           0.30524000          -0.78785000         
H                     3.07265000           0.23327000           1.50688000         
H                     1.81162000           1.45896000           1.37990000         
H                     1.46602000          -0.10777000           2.14001000         
H                     1.46399000          -2.27354000           0.61895000         
H                     3.05925000          -1.81129000           0.02236000         
H                     1.74142000          -2.07802000          -1.12224000         
H                    -0.33070000          -1.16261000           1.18850000         
H                    -2.12468000           0.12756000           2.11282000         
H                    -2.09092000           1.30114000           0.80657000         
H                    -0.72878000           1.19024000           1.93500000         
H                    -2.42728000          -0.67911000          -0.95962000         
H                    -2.53635000          -1.75547000           0.43348000         
H                    -1.35294000          -2.07999000          -0.83698000         
H                     0.10327000           2.12989000          -0.19718000         
