18

C                    -2.32723000          -0.25019000          -0.31660000         
C                    -0.97565000           0.16254000           0.24774000         
O                    -0.78087000           1.54700000          -0.05623000         
C                     0.15623000          -0.65275000          -0.37559000         
N                     1.40901000          -0.39782000           0.30471000         
C                     2.33637000           0.55198000           0.01098000         
N                     3.31092000           0.49831000           0.88852000         
C                     2.91936000          -0.51505000           1.71747000         
N                     1.76243000          -1.10203000           1.39720000         
H                    -2.54552000          -1.30094000          -0.10459000         
H                    -3.12432000           0.36611000           0.11326000         
H                    -2.36171000          -0.09485000          -1.40080000         
H                    -0.97713000           0.04924000           1.33842000         
H                    -1.33655000           2.05880000           0.55935000         
H                     0.30369000          -0.39177000          -1.43004000         
H                    -0.03733000          -1.72939000          -0.30742000         
H                     2.24305000           1.24195000          -0.81691000         
H                     3.49294000          -0.83003000           2.57944000         
