18

C                    -3.23965000          -0.24441000          -2.00349000         
C                    -2.47418000          -0.25109000          -1.06792000         
C                    -1.50838000           0.19382000          -0.04523000         
C                    -1.77975000          -0.13393000           1.41937000         
N                    -0.15183000          -0.01129000          -0.51781000         
C                     0.98046000           0.01075000           0.23809000         
O                     1.04365000           0.01326000           1.45674000         
O                     2.06251000           0.01664000          -0.58410000         
C                     3.31654000          -0.02223000           0.10519000         
H                    -3.89808000          -0.03176000          -2.81531000         
H                    -1.34062000           0.68925000           2.00250000         
H                    -2.84355000          -0.14787000           1.67265000         
H                    -1.31112000          -1.05081000           1.79542000         
H                     0.01567000           0.06824000          -1.51059000         
H                     4.11755000          -0.03898000          -0.63978000         
H                     3.39451000          -0.93086000           0.71151000         
H                     3.44414000           0.86938000           0.72768000         
H                    -1.66996000           1.27396000          -0.08360000         
