18

C                     2.81337000           1.21377000          -0.26331000         
C                     1.85282000           0.28624000          -0.11770000         
C                     1.93649000          -1.21479000          -0.29043000         
C                     0.45830000          -1.53064000          -0.19342000         
C                    -0.23859000          -0.44995000           0.12746000         
C                    -1.68336000          -0.31933000           0.48032000         
C                    -2.43617000           0.63383000          -0.43377000         
O                     0.55347000           0.68657000           0.18846000         
H                     2.57150000           2.26476000          -0.14861000         
H                     3.82661000           0.94605000          -0.52689000         
H                     2.50617000          -0.99296000          -1.21838000         
H                     0.04930000          -2.53042000          -0.27062000         
H                    -2.17062000          -1.30155000           0.45748000         
H                    -1.75711000           0.04320000           1.51213000         
H                    -3.47501000           0.72942000          -0.10054000         
H                    -2.44296000           0.27136000          -1.46665000         
H                    -1.98979000           1.63387000          -0.42310000         
H                     2.15598000          -2.17724000          -0.77853000         
