9

C                    -0.73200000           0.42329000          -0.41559000         
C                     1.70043000          -0.37908000          -0.16465000         
C                     0.53097000           0.17581000          -0.22879000         
C                     2.90712000           0.19242000           0.28151000         
C                     4.07911000           0.26094000           0.55317000         
H                    -1.09697000           0.59941000          -1.42417000         
H                    -1.46101000           0.04534000           0.29647000         
H                     5.11115000           0.05260000           0.70314000         
H                     1.78300000          -1.40544000          -0.48889000         
