21

C                     5.02625000           0.18852000           0.45097000         
C                     3.77857000           0.11840000           0.08710000         
C                     2.68437000           0.13167000          -0.61109000         
C                     1.37988000          -0.22144000          -0.19272000         
C                     0.19078000          -0.42606000          -0.20954000         
C                    -1.25458000          -0.59132000          -0.49340000         
C                    -1.69420000          -2.02025000          -0.17918000         
C                    -2.11008000           0.42332000           0.28102000         
C                    -1.86004000           1.86735000          -0.14171000         
H                     5.37555000           0.93510000           1.15729000         
H                     5.77713000          -0.21585000          -0.22530000         
H                    -1.42067000          -0.42682000          -1.56825000         
H                    -1.14219000          -2.74140000          -0.79292000         
H                    -1.51311000          -2.26744000           0.87189000         
H                    -2.76169000          -2.16070000          -0.38425000         
H                    -1.92298000           0.32750000           1.35673000         
H                    -3.17428000           0.20508000           0.12097000         
H                    -2.10378000           2.01743000          -1.19872000         
H                    -0.81755000           2.15872000           0.01570000         
H                    -2.48698000           2.54436000           0.44759000         
H                     2.78030000           0.39813000          -1.65416000         
