21

C                     4.06303000          -0.82655000           0.00040000         
C                     2.57874000          -0.74772000          -0.08410000         
C                     1.84431000           0.37443000          -0.00506000         
C                     0.40950000           0.28437000          -0.10836000         
C                    -0.47770000           1.28867000          -0.04528000         
C                    -1.97756000           1.09739000          -0.16735000         
C                    -2.41281000          -0.35546000          -0.37695000         
C                    -3.89846000          -0.54680000          -0.50137000         
O                    -4.72638000           0.35125000          -0.44781000         
H                     4.52537000           0.15392000           0.13678000         
H                     4.34679000          -1.46785000           0.84076000         
H                     4.45675000          -1.27479000          -0.91729000         
H                     2.08293000          -1.70766000          -0.22249000         
H                     2.30767000           1.34744000           0.13332000         
H                    -0.13923000           2.31337000           0.10111000         
H                    -2.45246000           1.49447000           0.73852000         
H                    -2.33790000           1.71111000          -1.00239000         
H                    -1.96859000          -0.75775000          -1.29538000         
H                    -2.08792000          -0.97617000           0.46675000         
H                    -4.21070000          -1.59694000          -0.65148000         
H                     0.04850000          -0.72943000          -0.25403000         
