17

O                     4.83009000          -0.45078000           0.06625000         
C                     3.71443000          -0.93667000           0.17063000         
N                     2.58599000          -0.17653000           0.07407000         
C                     1.27049000          -0.56741000           0.15903000         
C                     0.33991000           0.38782000           0.04546000         
C                    -1.06620000           0.24161000           0.10960000         
C                    -1.97600000           0.12428000          -0.93639000         
C                    -3.25252000           0.48789000          -0.43763000         
C                    -3.07914000           0.71699000           0.90298000         
O                    -1.78166000           0.53338000           1.24903000         
H                     3.53946000          -2.00910000           0.34764000         
H                     2.79274000           0.80580000          -0.07484000         
H                     1.05715000          -1.62258000           0.31606000         
H                    -1.72283000          -0.06015000          -1.97175000         
H                    -4.16992000           0.61932000          -0.99490000         
H                    -3.73274000           1.04791000           1.69848000         
H                     0.65544000           1.41700000          -0.08704000         
