19

C                    -4.78387000           0.51279000           0.32797000         
C                    -3.90105000           0.13652000          -0.83398000         
C                    -2.60129000           0.06928000          -0.71176000         
C                    -1.43003000           0.15527000          -0.15314000         
C                    -0.14807000          -0.14784000          -0.67656000         
C                     1.04861000          -0.29071000          -0.76354000         
C                     2.47373000          -0.39992000          -0.70648000         
C                     3.18358000          -0.18110000           0.41609000         
C                     4.67957000          -0.29285000           0.49798000         
H                    -4.19446000           0.68463000           1.23741000         
H                    -5.50316000          -0.28240000           0.54598000         
H                    -5.33817000           1.43264000           0.11662000         
H                    -4.39481000          -0.03831000          -1.78646000         
H                     2.99078000          -0.66978000          -1.62168000         
H                     2.68424000           0.09383000           1.34404000         
H                     5.12685000          -0.57074000          -0.46173000         
H                     5.12029000           0.66018000           0.81064000         
H                     4.96699000          -1.05131000           1.23444000         
H                    -1.42652000           0.49790000           0.87219000         
