25

C                     4.54274000           0.35049000          -0.23317000         
C                     3.15118000           0.82870000           0.04169000         
C                     2.08317000           0.04436000          -0.14724000         
C                     0.71199000           0.43094000           0.09444000         
C                    -0.28995000          -0.43489000          -0.12866000         
C                    -1.78507000          -0.23351000           0.05868000         
C                    -2.47148000          -0.46809000          -1.29933000         
C                    -2.28674000          -1.29129000           1.05861000         
C                    -2.17324000           1.16110000           0.57602000         
H                     5.01383000           0.97723000          -0.99577000         
H                     5.14466000           0.39550000           0.67895000         
H                     4.55529000          -0.68424000          -0.59357000         
H                     3.04375000           1.84839000           0.40425000         
H                     0.52421000           1.43738000           0.45959000         
H                    -0.02628000          -1.42879000          -0.49551000         
H                    -2.14501000           0.26821000          -2.04312000         
H                    -2.24389000          -1.46422000          -1.69845000         
H                    -3.56125000          -0.39254000          -1.21093000         
H                    -1.82456000          -1.15887000           2.04390000         
H                    -3.37323000          -1.23004000           1.18865000         
H                    -2.05474000          -2.30819000           0.71877000         
H                    -3.26016000           1.24771000           0.69154000         
H                    -1.85481000           1.94912000          -0.11593000         
H                    -1.72374000           1.36599000           1.55435000         
H                     2.24063000          -0.96957000          -0.51175000         
