16

N                     3.82469000          -0.99581000          -0.18825000         
C                     2.70934000          -0.70221000          -0.25513000         
C                     1.31032000          -0.34592000          -0.25007000         
C                     0.41585000          -1.34584000          -0.17238000         
C                    -0.99523000          -1.24881000           0.30336000         
C                    -1.88195000          -0.10901000          -0.06043000         
C                    -1.52223000           1.17660000          -0.11691000         
C                    -0.18361000           1.70238000          -0.09561000         
C                     0.99836000           1.06879000          -0.15174000         
H                     0.79257000          -2.37181000          -0.20250000         
H                    -1.51533000          -2.20302000           0.16603000         
H                    -2.95087000          -0.32715000          -0.02618000         
H                    -2.31667000           1.92493000          -0.08366000         
H                    -0.15598000           2.79091000          -0.05719000         
H                     1.87756000           1.71452000          -0.14859000         
H                    -0.88013000          -1.12926000           1.38404000         
