17

C                     3.63805000           1.20147000          -0.85229000         
C                     2.86419000           0.31523000          -0.57874000         
C                     2.02758000          -0.58588000           0.21922000         
C                     0.55876000          -0.66365000          -0.00947000         
C                    -0.27825000          -1.71456000           0.33518000         
O                    -1.57983000          -1.31518000           0.34950000         
C                    -1.59161000          -0.00479000          -0.01492000         
C                    -2.89557000           0.68319000          -0.03707000         
C                    -0.31116000           0.42867000          -0.26966000         
H                     4.28318000           2.04926000          -0.87798000         
H                     2.48738000          -1.56046000           0.40833000         
H                    -0.11240000          -2.72201000           0.69770000         
H                    -3.54849000           0.22161000          -0.78150000         
H                    -3.39046000           0.65200000           0.93899000         
H                    -2.75763000           1.73485000          -0.30986000         
H                    -0.02421000           1.44460000          -0.49588000         
H                     2.04086000          -0.05917000           1.17806000         
