17

O                     4.13586000           0.58820000          -0.01007000         
C                     3.00383000          -0.17526000           0.00723000         
C                     1.75423000           0.31687000           0.09708000         
C                     0.56738000          -0.53362000          -0.25731000         
C                    -0.82318000          -0.20954000           0.18095000         
C                    -1.94790000          -1.01116000           0.28018000         
C                    -3.06324000          -0.13909000           0.28463000         
C                    -2.54844000           1.13538000           0.26459000         
O                    -1.18914000           1.10441000           0.22717000         
H                     3.87919000           1.52185000          -0.10967000         
H                     3.24730000          -1.21788000          -0.15912000         
H                     1.59457000           1.37779000           0.24743000         
H                     0.77400000          -1.59264000          -0.06032000         
H                    -1.97099000          -2.09066000           0.21253000         
H                    -4.11098000          -0.40636000           0.24694000         
H                    -2.99574000           2.11850000           0.22127000         
H                     0.50134000          -0.42879000          -1.34820000         
