22

C                    -4.07393000           2.38954000           0.50876000         
C                    -3.84582000           1.28294000           0.11816000         
C                    -3.56408000          -0.15916000           0.10254000         
O                    -2.39974000          -0.56933000          -0.62294000         
C                    -1.20084000          -0.02631000          -0.07422000         
C                     0.01060000          -0.93281000          -0.29059000         
O                     1.16687000          -0.18091000           0.08795000         
C                     2.38376000          -0.90032000          -0.12582000         
C                     3.53227000           0.05320000           0.18898000         
O                     3.46393000           1.18977000          -0.67249000         
H                    -4.23070000           3.28370000           1.07494000         
H                    -4.41816000          -0.74481000          -0.25061000         
H                    -1.02485000           0.93644000          -0.56231000         
H                    -1.29226000           0.15974000           1.00347000         
H                     0.08123000          -1.24798000          -1.33711000         
H                    -0.05975000          -1.83446000           0.33188000         
H                     2.43466000          -1.21704000          -1.17301000         
H                     2.41865000          -1.77327000           0.53356000         
H                     4.49989000          -0.43378000           0.04453000         
H                     3.46335000           0.41932000           1.21828000         
H                     2.53665000           1.49429000          -0.61927000         
H                    -3.40693000          -0.41817000           1.15170000         
