6

C                     3.80091000           1.02435000          -1.40541000         
C                     2.87441000           0.04836000          -0.90482000         
C                     1.93608000          -0.53241000          -0.42563000         
O                     4.88293000           0.73878000          -1.89302000         
H                     1.02355000          -0.83943000           0.02279000         
H                     3.41882000           2.05055000          -1.29622000         
