9

C                     2.98205000           0.49249000           0.24536000         
C                     2.28179000          -0.46212000          -0.36817000         
C                     0.86276000          -0.47969000          -0.35695000         
C                    -0.33280000          -0.51373000          -0.28812000         
O                     4.34869000           0.43844000           0.30094000         
H                     2.54699000           1.34196000           0.75921000         
H                     2.81029000          -1.27240000          -0.85967000         
H                    -1.39327000          -0.53831000          -0.18020000         
H                     4.69148000           1.34676000           0.35639000         
