23

C                    -0.25420000           0.14400000          -2.59430000         
C                     0.11949000          -0.03600000          -1.26661000         
C                    -0.77017000           0.13380000          -0.25437000         
C                    -1.62152000           0.29500000           0.71389000         
C                    -2.47290000          -0.83920000           1.23690000         
C                    -1.82940000           1.62980000           1.39190000         
C                     1.52090000          -0.42050000          -0.97040000         
C                     2.02930000          -0.62670000           0.23830000         
C                     3.44730000          -1.01410000           0.50540000         
H                     0.46490000           0.00520000          -3.38880000         
H                    -1.26330000           0.42370000          -2.85580000         
H                    -3.53200000          -0.59360000           1.12670000         
H                    -2.28360000          -0.98900000           2.30260000         
H                    -2.27050000          -1.76830000           0.70930000         
H                    -1.62160000           1.54320000           2.46120000         
H                    -2.87080000           1.94410000           1.28810000         
H                    -1.18630000           2.39820000           0.96940000         
H                     2.15750000          -0.53460000          -1.84350000         
H                     1.37910000          -0.50850000           1.10170000         
H                     3.94180000          -0.27350000           1.13830000         
H                     3.49820000          -1.96760000           1.03630000         
H                     4.01350000          -1.10660000          -0.42110000         
H                    -0.58740000           1.21830000          -0.27500000         
