4

O                     1.35988000           1.04651000           0.48309000         
O                     2.15716000           0.16718000           1.32301000         
H                     0.85849000           0.34520000           0.02526000         
H                     3.02907000           0.52672000           1.07134000         
