18

C                     3.49784000          -0.87058000          -0.51590000         
C                     2.58189000           0.33655000          -0.52671000         
O                     1.23675000          -0.12706000          -0.38721000         
C                     0.31363000           0.86725000          -0.41152000         
O                     0.53636000           2.06600000          -0.48654000         
C                    -1.02442000           0.36285000          -0.26666000         
C                    -2.12173000          -0.04327000           0.00944000         
C                    -3.38226000          -0.50890000           0.57548000         
N                    -4.50106000           0.27561000           0.08383000         
H                     3.21409000          -1.57390000          -1.30568000         
H                     4.53890000          -0.57123000          -0.66373000         
H                     3.41550000          -1.40884000           0.43425000         
H                     2.68531000           0.86972000          -1.47795000         
H                     2.83801000           1.00643000           0.30248000         
H                    -3.54530000          -1.56849000           0.35769000         
H                    -4.33830000           1.25822000           0.30063000         
H                    -5.33410000           0.01003000           0.60672000         
H                    -3.32192000          -0.39920000           1.66316000         
