22

C                    -3.03026000           0.60704000           0.88251000         
C                    -2.04787000           0.66146000          -0.27971000         
N                    -0.68427000           0.21022000           0.05611000         
C                    -0.67862000          -1.20754000           0.44206000         
C                     0.17937000           0.47077000          -1.11484000         
C                     1.61276000           0.33135000          -0.82142000         
C                     2.74862000           0.05225000          -0.56839000         
C                     4.00014000          -0.56868000          -0.13832000         
O                     4.73192000           0.25979000           0.75164000         
H                    -3.94817000           1.13949000           0.61145000         
H                    -2.61507000           1.08602000           1.77469000         
H                    -3.30909000          -0.42121000           1.13096000         
H                    -1.99899000           1.71030000          -0.59790000         
H                    -2.45031000           0.08909000          -1.12570000         
H                     0.33063000          -1.56457000           0.67342000         
H                    -1.10207000          -1.85303000          -0.33638000         
H                    -1.25652000          -1.36528000           1.36069000         
H                    -0.08704000          -0.19758000          -1.94249000         
H                     0.02194000           1.49856000          -1.46273000         
H                     4.64987000          -0.85558000          -0.97019000         
H                     4.24681000           1.09580000           0.84969000         
H                     3.72372000          -1.48030000           0.39812000         
