6

N                     0.93578000           0.90686000           0.74763000         
N                     2.30157000           0.56374000           1.01682000         
H                     2.67963000           1.09425000           1.80920000         
H                     2.92915000           0.73167000           0.22722000         
H                     0.57863000           0.42750000          -0.08598000         
H                     0.78734000           1.90698000           0.59520000         
