13

C                    -0.39800000           0.64250000          -0.19721000         
N                     0.86813000           0.25786000          -0.53311000         
N                    -1.40121000           0.37015000          -1.08676000         
C                    -1.90987000           2.80377000           2.02344000         
N                    -1.90439000           1.69522000           1.35978000         
C                    -0.65281000           1.28144000           0.96783000         
H                     0.90463000          -0.53830000          -1.15638000         
H                     1.52754000           0.21494000           0.23525000         
H                    -2.31606000           0.44335000          -0.64131000         
H                    -1.26932000          -0.48143000          -1.61425000         
H                    -2.86397000           3.22046000           2.38377000         
H                    -1.00225000           3.38920000           2.26013000         
H                     0.17486000           1.47435000           1.64702000         
