18

C                     5.82675000          -0.01359000           0.83471000         
C                     4.39772000           0.05546000           0.57438000         
C                     3.22049000           0.11666000           0.33659000         
C                     1.74814000           0.14568000          -0.02490000         
C                     0.59636000           0.04902000          -0.35792000         
C                    -0.86513000          -0.14212000          -0.73023000         
C                    -2.06019000          -0.07423000          -0.84134000         
C                    -3.39253000           0.52093000          -0.79830000         
C                    -4.45034000          -0.11105000           0.09425000         
O                    -5.30238000          -1.02980000          -0.57613000         
H                     6.31575000          -0.70761000           0.14439000         
H                     6.01252000          -0.35386000           1.85685000         
H                     6.28037000           0.97336000           0.70905000         
H                    -3.77079000           0.72970000          -1.80236000         
H                    -5.10375000           0.71420000           0.39794000         
H                    -4.05159000          -0.56165000           1.00873000         
H                    -4.82521000          -1.86751000          -0.69062000         
H                    -3.17789000           1.47852000          -0.31292000         
