18

C                    -4.78466000          -0.16793000          -0.67086000         
C                    -3.73617000           0.02598000          -0.11248000         
C                    -2.47987000           0.02433000           0.64528000         
O                    -1.37596000           0.00555000          -0.27188000         
C                    -0.17003000           0.32639000           0.27321000         
O                     0.02461000           0.52076000           1.46432000         
C                     0.87823000           0.42075000          -0.79939000         
C                     2.25480000           0.73654000          -0.26941000         
C                     2.95145000          -0.32145000           0.54883000         
O                     2.81730000           1.79800000          -0.54482000         
H                    -5.70609000          -0.47770000          -1.10391000         
H                    -2.41356000           0.87091000           1.33948000         
H                     0.93716000          -0.51804000          -1.35975000         
H                     0.59336000           1.22161000          -1.49157000         
H                     3.08498000          -1.22136000          -0.05655000         
H                     2.37360000          -0.55366000           1.44492000         
H                     3.93585000           0.04197000           0.85874000         
H                    -2.48181000          -0.90317000           1.22814000         
