13

C                     0.04833000           0.04534000           0.12768000         
N                    -1.25533000           0.09213000           0.52086000         
C                     0.93193000           1.23011000           0.42891000         
C                     2.38803000           1.03074000           0.71420000         
N                     0.41267000          -0.96400000          -0.59932000         
N                     3.03414000           1.92279000           1.39261000         
H                    -1.86466000          -0.44728000          -0.08794000         
H                    -1.64050000           0.99382000           0.77897000         
H                     1.38226000          -0.89528000          -0.90691000         
H                     4.03724000           1.70731000           1.42223000         
H                     0.49541000           1.79602000           1.26045000         
H                     2.92682000           0.19526000           0.23957000         
H                     0.88864000           1.86024000          -0.46521000         
