23

C                     1.25095000           2.99436000           1.05974000         
C                     0.54576000           2.01046000           1.02936000         
C                     0.20138000           0.59967000           1.17967000         
C                    -0.24203000          -0.28987000          -0.00906000         
O                    -1.15826000          -1.28693000           0.49412000         
C                    -0.95791000           0.43182000          -1.17175000         
C                    -2.28781000           1.07242000          -0.78613000         
C                     1.00729000          -1.06042000          -0.53134000         
C                     1.74124000          -1.88102000           0.54647000         
H                     2.05738000           3.68252000           1.11239000         
H                    -0.29169000           0.33460000           2.12062000         
H                    -1.33166000          -1.92836000          -0.21901000         
H                    -0.29992000           1.18939000          -1.61012000         
H                    -1.17543000          -0.29355000          -1.97029000         
H                    -2.75503000           1.52900000          -1.66585000         
H                    -2.14839000           1.85508000          -0.03695000         
H                    -2.99155000           0.33461000          -0.38683000         
H                     1.70846000          -0.33962000          -0.96775000         
H                     0.71560000          -1.75745000          -1.32640000         
H                     2.13554000          -1.27910000           1.37092000         
H                     1.08732000          -2.63568000           0.99187000         
H                     2.61420000          -2.37311000           0.11366000         
H                     1.22815000           0.30127000           1.36306000         
