4

N                     1.31893000           1.10745000           0.47273000         
H                     0.72584000           0.59840000          -0.18108000         
H                     0.72587000           1.82222000           0.89196000         
H                     1.53986000           0.45163000           1.22070000         
