9

C                     0.62635000          -0.88837000           0.22082000         
C                     3.74489000           1.01182000          -1.44135000         
C                     2.83149000           0.04914000          -0.89080000         
C                     1.89397000          -0.51521000          -0.39361000         
O                     4.86929000           0.72080000          -1.81670000         
H                     0.02313000          -1.51555000          -0.44020000         
H                     0.06169000           0.03107000           0.41350000         
H                     0.76681000          -1.39998000           1.17579000         
H                     3.32298000           2.02908000          -1.48016000         
