18

C                    -1.87448000          -1.31194000          -0.20651000         
C                    -1.61528000          -0.28932000           0.89207000         
C                    -0.86504000           0.92696000           0.36531000         
O                    -0.69787000           1.86157000           1.42656000         
C                     0.44700000           0.52624000          -0.15271000         
C                     1.51359000           0.26892000          -0.62396000         
C                     2.85252000           0.24741000          -1.20050000         
O                     3.76329000          -0.48554000          -0.39782000         
H                    -0.93954000          -1.68693000          -0.63745000         
H                    -2.46342000          -0.87020000          -1.01656000         
H                    -2.41637000          -2.17097000           0.19502000         
H                    -1.03954000          -0.75719000           1.70151000         
H                    -2.56338000           0.02944000           1.34097000         
H                    -1.43874000           1.42249000          -0.42586000         
H                    -0.11333000           2.56605000           1.09753000         
H                     2.88746000          -0.12689000          -2.22797000         
H                     3.25273000          -1.02412000           0.22957000         
H                     3.17701000           1.28962000          -1.21360000         
