22

C                    -0.45513000           1.86781000          -0.82725000         
C                    -0.19422000           0.58894000          -0.48742000         
C                     0.85755000           0.19846000           0.57710000         
C                     1.41850000          -1.23747000           0.45965000         
C                     2.01367000           1.18910000           0.85238000         
O                     2.01551000           2.40081000           0.74264000         
O                     3.08697000           0.60557000           1.43714000         
C                    -1.04568000          -0.51226000          -1.01029000         
C                    -1.91077000          -1.25129000          -0.01448000         
C                    -2.55006000          -0.36548000          -1.03599000         
H                    -1.27433000           2.11681000          -1.49696000         
H                     0.06931000           2.71909000          -0.41087000         
H                     1.67593000          -1.59330000           1.46630000         
H                     2.33112000          -1.29174000          -0.14425000         
H                     0.71185000          -1.96806000           0.06019000         
H                     3.65555000           1.36640000           1.67973000         
H                    -0.60067000          -1.08897000          -1.81822000         
H                    -2.01297000          -2.32344000          -0.12782000         
H                    -1.91641000          -0.91400000           1.01642000         
H                    -3.09395000          -0.83792000          -1.84596000         
H                    -3.00463000           0.55312000          -0.68285000         
H                     0.28606000           0.21001000           1.51432000         
