14

O                    -2.54888000          -0.88620000           0.28629000         
C                    -1.75609000           0.02708000           0.20266000         
O                    -2.15199000           1.31129000           0.30223000         
C                    -0.29716000          -0.09464000           0.04112000         
C                     0.65738000           0.96908000          -0.04790000         
C                     1.88733000           0.43673000          -0.10418000         
C                     1.87229000          -1.06727000           0.00067000         
C                     0.36435000          -1.25795000          -0.02206000         
H                    -3.11718000           1.24024000           0.45144000         
H                     0.39847000           2.01598000          -0.10509000         
H                     2.78211000           1.03133000          -0.23753000         
H                     2.03884000          -2.09651000          -0.35533000         
H                    -0.11751000          -2.22720000           0.01681000         
H                     2.60554000          -1.01636000          -0.83343000         
