19

C                     2.78991000           2.00235000           0.47530000         
C                     2.42472000           0.95416000           0.00994000         
C                     2.26006000          -0.24077000          -0.73475000         
C                     1.29972000          -1.17287000          -0.66654000         
C                     0.08712000          -1.32566000           0.20775000         
C                    -1.21262000          -1.07597000          -0.57391000         
C                    -1.39495000           0.38713000          -0.96681000         
C                    -1.67507000           1.28068000           0.21719000         
O                    -1.93596000           0.88076000           1.34731000         
H                     3.22599000           2.92131000           0.79614000         
H                     1.40660000          -1.99336000          -1.37634000         
H                     0.14114000          -0.71015000           1.10987000         
H                     0.06834000          -2.36907000           0.55352000         
H                    -1.21985000          -1.69109000          -1.48416000         
H                    -2.06859000          -1.41070000           0.02649000         
H                    -0.50782000           0.77086000          -1.47930000         
H                    -2.24004000           0.48724000          -1.65619000         
H                    -1.67538000           2.36058000          -0.00555000         
H                     3.03378000          -0.39411000          -1.48317000         
