19

C                    -1.35305000           0.62562000          -1.64114000         
C                    -1.63111000           0.07349000          -0.29912000         
N                    -2.88741000          -0.25822000           0.14486000         
C                    -2.76115000          -0.76169000           1.41081000         
N                    -1.50898000          -0.76391000           1.80851000         
C                    -0.81062000          -0.22178000           0.76510000         
C                     0.60007000          -0.08089000           0.81241000         
C                     1.80053000          -0.08113000           0.76439000         
C                     3.23450000          -0.31827000           0.66399000         
N                     3.88044000           0.61053000          -0.25132000         
H                    -1.85217000           1.59045000          -1.76747000         
H                    -0.27933000           0.78152000          -1.79060000         
H                    -1.70035000          -0.05594000          -2.42383000         
H                    -3.75426000          -0.14649000          -0.36239000         
H                    -3.61032000          -1.10232000           1.98837000         
H                     3.70802000          -0.25579000           1.64775000         
H                     3.44547000           0.52917000          -1.16855000         
H                     4.84615000           0.30900000          -0.37437000         
H                     3.37917000          -1.33595000           0.28787000         
