6

C                     1.92023000           0.63013000           0.85562000         
C                     2.68810000           1.20030000           1.78815000         
H                     2.23719000          -0.27407000           0.34547000         
H                     2.37114000           2.10450000           2.29830000         
H                     3.64876000           0.77407000           2.05972000         
H                     0.95957000           1.05636000           0.58405000         
