10

C                     1.13476000           0.43498000           0.17305000         
C                    -0.20078000          -0.13323000          -0.19090000         
N                    -1.27668000           0.43609000           0.23561000         
C                    -2.44073000          -0.23809000          -0.02380000         
O                    -3.49433000           0.29587000          -0.35040000         
H                    -0.20421000          -1.06993000          -0.77858000         
H                     1.92457000          -0.11583000          -0.34287000         
H                     1.26996000           0.32406000           1.25276000         
H                     1.18417000           1.49359000          -0.09164000         
H                    -2.40404000          -1.33410000           0.11528000         
