17

C                    -2.84816000           0.28726000          -0.09710000         
C                    -1.62803000           0.14350000          -0.95289000         
O                    -1.62915000           0.11548000          -2.17714000         
N                    -0.40739000           0.03536000          -0.25865000         
C                    -0.18839000           0.04436000           1.10827000         
C                     1.16239000          -0.08722000           1.34975000         
C                     1.81907000          -0.18251000           0.09705000         
C                     3.23796000          -0.33249000          -0.16571000         
O                     4.08649000          -0.39859000           0.71742000         
C                     0.83267000          -0.10445000          -0.86551000         
H                    -2.79173000           1.20013000           0.50166000         
H                    -2.97406000          -0.59031000           0.54246000         
H                    -3.72689000           0.36199000          -0.74545000         
H                    -1.00560000           0.14334000           1.80999000         
H                     1.63448000          -0.11280000           2.32549000         
H                     0.89230000          -0.13527000          -1.94703000         
H                     3.52115000          -0.38537000          -1.23093000         
