20

C                     3.59722000          -0.59166000           0.12639000         
C                     2.64190000           0.07713000           1.25884000         
C                     2.18510000          -0.44129000           0.07179000         
C                     1.13604000          -0.66880000          -0.70355000         
C                    -0.25164000          -0.23217000          -0.45864000         
C                    -0.62917000           0.53247000           0.65329000         
C                    -1.94108000           0.99445000           0.80141000         
C                    -2.90106000           0.69558000          -0.16027000         
C                    -2.54951000          -0.06889000          -1.26889000         
C                    -1.23592000          -0.53045000          -1.41556000         
H                     4.43127000          -0.86169000           0.81579000         
H                     2.46782000          -0.48734000           2.16582000         
H                     2.69982000           1.15142000           1.37483000         
H                     1.30769000          -1.19210000          -1.64082000         
H                     0.09326000           0.80107000           1.41707000         
H                    -2.20530000           1.59877000           1.66514000         
H                    -3.91775000           1.06270000          -0.04779000         
H                    -3.29438000          -0.29687000          -2.02713000         
H                    -0.98889000          -1.11169000          -2.30134000         
H                     3.69968000          -1.60955000          -0.28527000         
