14

C                     1.31426000           0.67275000          -1.66314000         
C                     1.63156000          -0.52653000          -0.88211000         
C                     1.81256000           1.87800000          -1.32549000         
C                     2.23356000          -0.60453000           0.31307000         
C                     0.38620000           1.31812000          -3.90841000         
C                     0.40261000           0.55668000          -2.80593000         
H                     1.32323000          -1.46456000          -1.34399000         
H                     1.56107000           2.78147000          -1.87112000         
H                     2.48852000           2.02009000          -0.49040000         
H                     2.39859000          -1.57314000           0.77507000         
H                     2.56859000           0.26320000           0.86799000         
H                     1.08086000           2.13551000          -4.06686000         
H                    -0.33102000           1.11929000          -4.69879000         
H                    -0.31210000          -0.26356000          -2.74459000         
