17

C                    -3.05865000           0.68470000           0.70946000         
C                    -2.22546000          -0.40168000           0.05754000         
O                    -0.85678000           0.00835000           0.02812000         
C                    -0.02866000          -0.93369000          -0.49742000         
O                    -0.35898000          -1.98786000          -1.01628000         
C                     1.35555000          -0.54467000          -0.39434000         
C                     2.45697000          -0.07369000          -0.40412000         
C                     3.65619000           0.73352000          -0.61675000         
O                     4.64218000           0.03378000          -1.36063000         
H                    -2.99800000           1.61817000           0.14066000         
H                    -2.69566000           0.89998000           1.71979000         
H                    -4.10673000           0.37714000           0.77047000         
H                    -2.58567000          -0.58166000          -0.96137000         
H                    -2.30610000          -1.32099000           0.64727000         
H                     4.10585000           1.11725000           0.30381000         
H                     4.39669000          -0.90555000          -1.39400000         
H                     3.34456000           1.59529000          -1.21272000         
