26

C                     3.03883000           0.23043000          -0.93278000         
C                     1.56981000           0.09287000          -0.49014000         
C                     1.31889000          -1.38814000          -0.11163000         
C                     0.07827000          -1.81447000           0.62272000         
C                    -1.15153000          -1.27789000           0.56632000         
C                    -1.55429000          -0.09931000          -0.28062000         
C                    -3.02398000          -0.24046000          -0.69390000         
C                    -1.33742000           1.22629000           0.47412000         
C                     0.05461000           1.61024000           0.91963000         
C                     1.25855000           1.12251000           0.57241000         
H                     3.72778000           0.10814000          -0.08808000         
H                     3.29023000          -0.53098000          -1.67957000         
H                     3.22667000           1.21182000          -1.38131000         
H                     0.98505000           0.34069000          -1.38220000         
H                     2.17434000          -1.75100000           0.47366000         
H                     0.21343000          -2.67543000           1.27669000         
H                    -1.92751000          -1.73080000           1.18175000         
H                    -0.99192000          -0.09836000          -1.21784000         
H                    -3.68845000          -0.26511000           0.17686000         
H                    -3.32796000           0.59965000          -1.32741000         
H                    -3.18147000          -1.16217000          -1.26573000         
H                    -1.72327000           2.05264000          -0.13574000         
H                    -1.95856000           1.20509000           1.38125000         
H                     0.05402000           2.41130000           1.66126000         
H                     2.12085000           1.57154000           1.06805000         
H                     1.33350000          -1.97091000          -1.04327000         
