18

C                     2.28722000           1.30020000           0.58689000         
C                     1.27000000           0.51758000           0.18551000         
C                    -0.13833000           1.05760000           0.11681000         
C                    -1.24590000           0.03162000           0.09869000         
C                    -2.49886000           0.38823000           0.43781000         
C                    -0.95189000          -1.34119000          -0.45188000         
C                     0.50515000          -1.64713000          -0.62852000         
C                     1.50914000          -0.81588000          -0.31468000         
H                     2.10889000           2.31849000           0.91986000         
H                     3.32037000           0.96998000           0.56040000         
H                    -0.30537000           1.78386000           0.92372000         
H                    -3.33667000          -0.29404000           0.33088000         
H                    -2.72600000           1.39638000           0.77403000         
H                    -1.43736000          -1.43219000          -1.43043000         
H                    -1.38368000          -2.10813000           0.20481000         
H                     0.74475000          -2.62240000          -1.04328000         
H                     2.53646000          -1.14046000          -0.45787000         
H                    -0.21214000           1.59996000          -0.83387000         
