22

C                     3.99861000           1.28854000          -0.00696000         
C                     3.35697000          -0.08224000           0.14453000         
C                     1.91547000           0.03027000           0.56986000         
C                     0.87552000          -0.40421000          -0.16224000         
C                    -0.50183000          -0.37410000           0.30307000         
C                    -1.52684000          -0.87967000          -0.40820000         
C                    -2.74115000          -1.33277000           0.23635000         
C                    -3.98890000          -0.86133000           0.34104000         
C                    -4.64623000           0.35173000          -0.18420000         
O                    -5.83359000           0.54893000           0.04214000         
H                     3.48105000           1.88150000          -0.76811000         
H                     5.04628000           1.18914000          -0.30987000         
H                     3.97287000           1.84475000           0.93628000         
H                     3.90940000          -0.65737000           0.89827000         
H                     3.45051000          -0.63103000          -0.79999000         
H                     1.74764000           0.47878000           1.54727000         
H                     1.06935000          -0.88344000          -1.12067000         
H                    -0.65992000          -0.04981000           1.33025000         
H                    -1.34504000          -1.27975000          -1.40521000         
H                    -4.69706000          -1.47144000           0.90040000         
H                    -4.03787000           1.04667000          -0.78062000         
H                    -2.57556000          -2.29905000           0.71851000         
