18

C                     2.96448000          -0.37109000          -0.09840000         
C                     1.67221000          -0.17897000           0.16496000         
N                     0.67322000          -0.18606000          -0.76221000         
C                    -0.59436000           0.05644000          -0.11083000         
C                    -1.21974000           1.35414000          -0.58989000         
C                    -1.52042000          -1.13877000          -0.24695000         
C                    -0.05763000           0.18849000           1.31937000         
N                     1.23072000           0.05089000           1.44842000         
H                     3.69417000          -0.34883000           0.70280000         
H                     3.31618000          -0.55210000          -1.10533000         
H                    -0.53873000           2.20311000          -0.45753000         
H                    -1.47358000           1.29916000          -1.65433000         
H                    -2.13426000           1.58024000          -0.03069000         
H                    -2.44403000          -0.98788000           0.32258000         
H                    -1.05251000          -2.05647000           0.12846000         
H                    -1.78844000          -1.31148000          -1.29519000         
H                    -0.73921000           0.38622000           2.15903000         
H                     0.82632000          -0.33995000          -1.74597000         
