24

C                     2.10427000           1.12263000          -1.70826000         
C                     1.72042000           0.58417000          -0.70672000         
C                     1.26104000           0.02682000           0.58788000         
C                     1.45519000          -1.49750000           0.70258000         
C                     0.31147000          -2.34530000           0.22529000         
C                    -0.92118000          -1.85955000           0.03019000         
C                    -1.26065000          -0.39333000           0.13690000         
C                    -1.51533000           0.11785000          -1.28248000         
C                    -0.19557000           0.40174000           0.94379000         
C                    -0.43967000           1.91360000           0.95203000         
H                     2.43636000           1.63746000          -2.58347000         
H                     1.91664000           0.47918000           1.34565000         
H                     2.39436000          -1.81862000           0.23930000         
H                     0.49428000          -3.41036000           0.10202000         
H                    -1.72988000          -2.54079000          -0.22926000         
H                    -2.20515000          -0.31318000           0.69245000         
H                    -0.62985000           0.02072000          -1.91739000         
H                    -2.31127000          -0.46355000          -1.76308000         
H                    -1.83099000           1.16384000          -1.28653000         
H                    -0.32321000           0.08467000           1.99139000         
H                    -1.45952000           2.13410000           1.28403000         
H                    -0.29937000           2.36816000          -0.03285000         
H                     0.24892000           2.40775000           1.64636000         
H                     1.53667000          -1.73213000           1.77238000         
