18

C                    -3.68610000           0.75221000          -0.65858000         
C                    -2.36731000           0.05943000          -0.74175000         
C                    -1.53136000           0.05030000           0.30238000         
O                    -1.93976000           0.55293000           1.51839000         
C                    -0.18172000          -0.36027000           0.17005000         
C                     0.97970000          -0.65660000           0.07597000         
C                     2.38637000          -1.04857000          -0.03397000         
C                     3.25115000           0.08382000          -0.55988000         
H                    -4.30113000           0.39237000           0.17247000         
H                    -4.25059000           0.63586000          -1.58702000         
H                    -2.04883000          -0.31447000          -1.71161000         
H                    -1.16736000           0.53087000           2.10720000         
H                     2.46632000          -1.90991000          -0.70524000         
H                     2.75605000          -1.36458000           0.94753000         
H                     4.29160000          -0.24580000          -0.64727000         
H                     2.91490000           0.41435000          -1.54859000         
H                     3.22427000           0.95010000           0.11016000         
H                    -3.49071000           1.82037000          -0.51723000         
