14

C                    -2.52603000           0.35609000           0.50432000         
C                    -1.92048000          -0.83205000          -0.18624000         
O                    -2.55734000          -1.64467000          -0.84167000         
C                    -0.47016000          -0.91804000          -0.06920000         
C                     0.71686000          -0.75721000          -0.05876000         
C                     2.04841000          -0.27345000          -0.45892000         
C                     2.90275000           0.51270000           0.49023000         
O                     4.13173000           0.53676000           0.40504000         
H                    -3.61506000           0.27213000           0.50736000         
H                    -2.23990000           1.28383000          -0.00171000         
H                    -2.17237000           0.37723000           1.53836000         
H                     2.64508000          -1.03516000          -0.96794000         
H                     2.39096000           1.26277000           1.11480000         
H                     1.78825000           0.50235000          -1.17836000         
