17

C                    -2.37776000           1.48207000          -0.20154000         
C                    -1.43679000           0.37394000           0.04415000         
C                    -1.55578000          -1.00004000           0.05087000         
C                    -0.24414000          -1.50876000           0.22204000         
C                     0.58572000          -0.41563000           0.34998000         
C                     2.05215000          -0.25003000           0.51945000         
N                     2.63098000           0.47389000          -0.61313000         
O                    -0.14343000           0.73416000           0.26057000         
H                    -2.41386000           2.16604000           0.65139000         
H                    -3.38837000           1.11120000          -0.39477000         
H                    -2.46589000          -1.56319000          -0.09769000         
H                     0.06114000          -2.54672000           0.22862000         
H                     2.25725000           0.30272000           1.44205000         
H                     2.53867000          -1.22682000           0.60597000         
H                     2.14820000           1.37280000          -0.67192000         
H                     2.37386000          -0.01429000          -1.47027000         
H                    -2.05067000           2.04645000          -1.08117000         
