15

C                     2.19103000           0.23871000           0.67144000         
C                     0.75532000           0.04972000           0.28127000         
C                     0.39077000          -0.97191000          -0.60530000         
C                    -0.92728000          -1.08140000          -1.05184000         
C                    -1.88750000          -0.16689000          -0.62539000         
C                    -1.53567000           0.84873000           0.26271000         
C                    -0.22006000           0.95404000           0.71687000         
H                     2.27454000           0.67581000           1.67176000         
H                     2.72848000          -0.71489000           0.68191000         
H                     1.13486000          -1.67788000          -0.96536000         
H                    -1.19975000          -1.87119000          -1.74744000         
H                    -2.90803000          -0.23845000          -0.99175000         
H                    -2.28120000           1.56836000           0.58851000         
H                     0.04332000           1.75838000           1.40048000         
H                     2.67527000           0.90787000          -0.04717000         
