7

C                    -0.32135000          -0.14315000          -0.40666000         
N                    -1.45716000           0.46167000          -0.42048000         
C                    -2.53572000          -0.24622000           0.04326000         
O                    -3.69950000           0.10983000          -0.11443000         
H                     0.56548000           0.36576000          -0.81738000         
H                    -0.16638000          -1.16606000          -0.02168000         
H                    -2.33678000          -1.19553000           0.57227000         
