20

C                     3.27046000          -0.30663000           0.75269000         
N                     1.82541000          -0.13665000           0.89741000         
C                     1.18525000          -0.18989000          -0.41947000         
C                    -0.32629000          -0.13020000          -0.43893000         
C                    -1.07238000           0.55297000           0.60701000         
C                    -2.37743000           0.82834000           0.46454000         
C                    -3.09230000           0.39143000          -0.75970000         
O                    -4.26472000           0.68361000          -0.95382000         
N                    -2.35140000          -0.35575000          -1.64269000         
C                    -1.00874000          -0.60029000          -1.50021000         
H                     3.67868000           0.32580000          -0.04394000         
H                     3.77132000          -0.02634000           1.68447000         
H                     3.51889000          -1.35119000           0.54083000         
H                     1.66103000           0.78877000           1.29181000         
H                     1.51421000          -1.09625000          -0.94458000         
H                    -0.56482000           0.83230000           1.52340000         
H                    -2.95717000           1.35351000           1.21098000         
H                    -2.83610000          -0.64544000          -2.48312000         
H                    -0.53008000          -1.11763000          -2.32605000         
H                     1.53479000           0.67221000          -1.00304000         
